Version 4
SHEET 1 1124 680
WIRE -208 96 -288 96
WIRE -144 96 -208 96
WIRE -80 96 -144 96
WIRE -32 96 -80 96
WIRE 480 96 384 96
WIRE 544 96 480 96
WIRE 640 96 544 96
WIRE 688 96 640 96
WIRE -288 112 -288 96
WIRE -208 112 -208 96
WIRE -144 112 -144 96
WIRE 384 112 384 96
WIRE 480 112 480 96
WIRE 544 112 544 96
WIRE -288 224 -288 192
WIRE -208 224 -208 176
WIRE -208 224 -288 224
WIRE -144 224 -144 192
WIRE -144 224 -208 224
WIRE -64 224 -144 224
WIRE 640 224 640 96
WIRE 688 224 640 224
WIRE -64 240 -64 224
WIRE 384 256 384 192
WIRE 480 256 480 176
WIRE 480 256 384 256
WIRE 544 256 544 192
WIRE 544 256 480 256
WIRE 576 256 544 256
WIRE 576 272 576 256
WIRE -208 368 -288 368
WIRE -144 368 -208 368
WIRE -80 368 -144 368
WIRE -32 368 -80 368
WIRE 480 368 384 368
WIRE 544 368 480 368
WIRE 640 368 544 368
WIRE 688 368 640 368
WIRE -288 384 -288 368
WIRE -208 384 -208 368
WIRE -144 384 -144 368
WIRE 384 384 384 368
WIRE 480 384 480 368
WIRE 544 384 544 368
WIRE -288 496 -288 464
WIRE -208 496 -208 448
WIRE -208 496 -288 496
WIRE -144 496 -144 464
WIRE -144 496 -208 496
WIRE -80 496 -144 496
WIRE 640 496 640 368
WIRE 688 496 640 496
WIRE -80 512 -80 496
WIRE 384 528 384 464
WIRE 480 528 480 448
WIRE 480 528 384 528
WIRE 544 528 544 464
WIRE 544 528 480 528
WIRE 576 528 544 528
WIRE 576 544 576 528
FLAG 640 96 Partall2
FLAG -80 96 Single
FLAG 640 368 Partall440
FLAG -80 368 Single440
FLAG -80 512 0
FLAG -64 240 0
FLAG 576 272 0
FLAG 576 544 0
SYMBOL Li-battery_CR2032 736 112 R180
SYMATTR InstName X3
SYMBOL Li-battery_CR2032 736 240 R180
SYMATTR InstName X4
SYMBOL Li-battery_CR2032 16 112 R180
SYMATTR InstName X5
SYMBOL load2 384 112 R0
WINDOW 3 -36 201 Left 2
WINDOW 123 0 0 Left 0
WINDOW 39 0 0 Left 0
SYMATTR InstName I1
SYMATTR Value PULSE(0.00007 0.3 10 0.4 0.4 1 10 5)
SYMBOL res 528 96 R0
SYMATTR InstName R1
SYMATTR Value 10K
SYMBOL cap 464 112 R0
SYMATTR InstName C1
SYMATTR Value 2.2µ
SYMBOL cap -224 112 R0
SYMATTR InstName C2
SYMATTR Value 2.2µ
SYMBOL res -160 96 R0
SYMATTR InstName R2
SYMATTR Value 10K
SYMBOL Li-battery_CR2032 736 384 R180
SYMATTR InstName X1
SYMBOL Li-battery_CR2032 736 512 R180
SYMATTR InstName X2
SYMBOL load2 384 384 R0
WINDOW 3 -36 201 Left 2
WINDOW 123 0 0 Left 0
WINDOW 39 0 0 Left 0
SYMATTR InstName I2
SYMATTR Value PULSE(0.00007 0.3 10 0.4 0.4 1 10 5)
SYMBOL res 528 368 R0
SYMATTR InstName R3
SYMATTR Value 10K
SYMBOL cap 464 384 R0
SYMATTR InstName C3
SYMATTR Value 440µ
SYMBOL load2 -288 112 R0
WINDOW 3 -36 201 Left 2
WINDOW 123 0 0 Left 0
WINDOW 39 0 0 Left 0
SYMATTR InstName I3
SYMATTR Value PULSE(0.00007 0.3 10 0.4 0.4 1 10 5)
SYMBOL Li-battery_CR2032 16 384 R180
SYMATTR InstName X6
SYMBOL cap -224 384 R0
SYMATTR InstName C4
SYMATTR Value 440µ
SYMBOL res -160 368 R0
SYMATTR InstName R4
SYMATTR Value 10K
SYMBOL load2 -288 384 R0
WINDOW 3 -36 201 Left 2
WINDOW 123 0 0 Left 0
WINDOW 39 0 0 Left 0
SYMATTR InstName I4
SYMATTR Value PULSE(0.00007 0.3 10 0.4 0.4 1 10 5)
TEXT -326 606 Left 2 !.tran 100
